25

O            0.000000   0.000000   9.876102
H            1.430429   0.000000  10.983259
H           -1.430429   0.000000  10.983259
O           10.000000   5.000000  -0.123898
H           11.430429   5.000000   0.983259
H            8.569571   5.000000   0.983259
O           -5.000000  -5.000000  -5.123898
H           -3.569571  -5.000000  -4.016741
H           -6.430429  -5.000000  -4.016741
N           -0.008768   0.091746   3.950756
N            0.014910  -0.156054  -6.671791
C           -0.002646   0.027741   1.204511
C           -2.287759  -0.222043  -0.103878
C           -2.281636  -0.283459  -2.721395
C            0.009184  -0.096206  -4.083793
C            2.293901   0.155033  -2.721432
C            2.288288   0.216487  -0.103897
H           -4.039894  -0.365171   0.947093
H           -4.055503  -0.477383  -3.740070
H           -1.601883  -0.343174  -7.662121
H            1.637788  -0.032692  -7.662140
H            4.072303   0.301525  -3.740127
H            4.035737   0.408748   0.947036
O           -2.064431  -0.076609   5.051427
O            2.041490   0.316888   5.051389
